#-----------------------------------------------------------------------------
[General]
description = Two hosts communicating wirelessly
network = simulations.networks.multiLink
seed-0-mt=732195
sim-time-limit = 9.999999s
**.startTime = 0s     

# =================================================
# ============= Application layer =================
# =================================================

multiLink.numberReceivingNodes = ${n=3}

multiLink.sender.numberWriterApps = 1
multiLink.receivers*.numberReaderApps = 1

multiLink.sender.rtpsAppWriter[*].sampleSize = 15000B
multiLink.sender.rtpsAppWriter[*].samplePeriod = 100ms
multiLink.sender.rtpsAppWriter[*].jitter = 0ms 
multiLink.sender.rtpsAppWriter[*].offset = 0ms

# =================================================
# ============== Middleware layer =================
# =================================================

# RTPS module
multiLink.**.rtps.nbrApps = 1
multiLink.**.rtps.nbrReadersPerApp = ${3}

# Writer configuration  
multiLink.sender.rtps.writer[0].typename = "WriterWiMEP"
multiLink.sender.rtps.writer[0].numberReaders = ${n}
multiLink.sender.rtps.writer[0].fragmentSize = 1000
multiLink.sender.rtps.writer[0].shaping = 2000us
multiLink.sender.rtps.writer[0].deadline = 100ms
multiLink.sender.rtps.writer[0].timeout = 5000us

# Reader configuration
multiLink.receivers[*].rtps.reader[0].typename = "ReaderWiMEP"
multiLink.receivers[*].rtps.reader[0].deadline = 100ms
# TODO configure answer delay if configured

multiLink.receivers[0].rtps.reader[0].priority = 1
multiLink.receivers[1].rtps.reader[0].priority = 2
multiLink.receivers[2].rtps.reader[0].priority = 3


# =================================================
# ================ Connectivity ===================
# =================================================

*.sender.rtps.writer[0].destAddresses = "224.0.0.1"
*.sender.rtps.writer[0].appID = 0
*.sender.rtps.inetAdapter.interfaceTableModule = "^.^.interfaceTable"
*.sender.rtps.inetAdapter.localPort = 200
*.sender.rtps.inetAdapter.destPort = 100

*.receivers[*].rtps.reader[0].destAddresses = "sender"
*.receivers[*].rtps.reader[0].appID = 0
*.receivers[*].rtps.inetAdapter.interfaceTableModule = "^.^.interfaceTable"
*.receivers[*].rtps.inetAdapter.localPort = 100 
*.receivers[*].rtps.inetAdapter.destPort = 200

*.*.rtps.inetAdapter.joinLocalMulticastGroups = true

# =================================================
# ================== IP Layer =====================
# =================================================

*.**.ipv4.arp.typename = "GlobalArp"
*.**.forwarding = true


# =================================================
# ================= MAC - Layer ===================
# =================================================

multiLink.**.wlan[0].typename = "WirelessInterface"
multiLink.**.wlan[0].mac.typename = "CsmaCaMacModified"
multiLink.**.wlan[0].queue.typename = "DropTailQueue"

multiLink.**.wlan[0].queue.packetCapacity = 100
multiLink.**.wlan[0].mac.bitErrorRate = 0.00004

# MAC retreansmissions
*.**.wlan[0].mac.useAck = false
*.**.wlan[*].mac.retryLimit = 0

# CSMA/CA configuration

multiLink.**.wlan[0].mac.sifsTime = 14us
multiLink.**.wlan[0].mac.slotTime = 9us

multiLink.**.wlan[0].mac.ta = 222
multiLink.**.wlan[0].mac.ta_enable = true
#*.**.wlan[0].mac.cwMin = 82
#*.**.wlan[0].mac.cwMax = 82

# ======================================================
# ================= Physical - Layer ===================
# ======================================================


multiLink.**.wlan[0].**.bitrate = 27Mbps

*.**.wlan[0].radio.typename = "UnitDiskRadio"
*.**.wlan[0].radio.transmitter.communicationRange = 1000m
*.**.wlan[0].radio.receiver.ignoreInterference = true
*.**.wlan[0].radio.transmitter.interferenceRange = 1000m
*.**.wlan[0].radio.displayInterferenceRange = false
*.**.wlan[0].radio.displayCommunicationRange = false

# ==================================================
# ================== Recording =====================
# ==================================================
*.**.wlan[*].**.scalar-recording = false
*.**.wlan[*].**.vector-recording = false
*.**.udp.**.scalar-recording = false
*.**.udp.**.vector-recording = false
*.**.ipv4.**.statistic-recording = false



# =======================================
# ============= Visualizer ==============
# =======================================
*.visualizer.mediumVisualizer.displaySignals = false

*.visualizer.physicalLinkVisualizer.displayLinks = true
*.visualizer.physicalLinkVisualizer.packetFilter = "UDPData*"

*.visualizer.*LinkVisualizer.lineShift = 0

*.visualizer.dataLinkVisualizer.packetFilter = ""
*.visualizer.dataLinkVisualizer.displayLinks = true

*.visualizer.networkRouteVisualizer.displayRoutes = true
*.visualizer.networkRouteVisualizer.lineShift = 0
*.visualizer.networkRouteVisualizer.packetFilter = "UDPData*"

*.visualizer.sceneVisualizer.descriptionFigure = "title"

# =======================================
# ============ Configurator =============
# =======================================

*.configurator.config = xmldoc("config.xml")
*.configurator.optimizeRoutes = false