#-----------------------------------------------------------------------------
[General]
description = Two hosts communicating wirelessly
network = simulations.networks.singleLink
seed-0-mt=732195
sim-time-limit = 86399.9999s
**.startTime = 0s     




singleLink.**.wlan[0].mac.bitErrorRate = ${0.00007,0.000082601}
singleLink.**.wlan[0].mac.ta = ${11,33,56,78,100,122,145,167,189,211,233,256,278,300,322,345,366}


# =================================================
# ============= Application layer =================
# =================================================

singleLink.**.pushBackFragmentData = false
singleLink.camera.numberWriterApps = 1
singleLink.vehicle.numberReaderApps = 1

singleLink.camera.rtpsAppWriter[*].sampleSize = 20000B
singleLink.camera.rtpsAppWriter[*].samplePeriod = 100ms
singleLink.camera.rtpsAppWriter[*].jitter = 0ms 
singleLink.camera.rtpsAppWriter[*].offset = 0ms

# =================================================
# ============== Middleware layer =================
# =================================================

# RTPS module
singleLink.**.rtps.nbrApps = 1
singleLink.**.rtps.nbrReadersPerApp = 1

# Writer configuration
singleLink.camera.rtps.writer[0].typename = "WriterW2RP"
singleLink.**.rtps.writer[*].numberReaders = 1 
singleLink.camera.rtps.writer[0].numberReaders = 1
singleLink.camera.rtps.writer[0].fragmentSize = 625
singleLink.camera.rtps.writer[0].shaping = ${sh=1230us}
singleLink.camera.rtps.writer[0].deadline = 100ms
singleLink.camera.rtps.writer[0].enableSeparateHBs = false
singleLink.camera.rtps.writer[0].enableNackSuppression = false
singleLink.camera.rtps.writer[0].timeout = ${sh}
singleLink.camera.rtps.writer[0].nackSuppressionDuration = ${sh}

# Reader configuration
singleLink.vehicle.rtps.reader[0].typename = "Reader"
singleLink.vehicle.rtps.reader[0].deadline = 100ms
singleLink.vehicle.rtps.reader[0].readerResponseDelay = ${rd = 500us}
# TODO configure answer delay if configured


# =================================================
# ================ Connectivity ===================
# =================================================

*.camera.rtps.inetAdapter.interfaceTableModule = ""
*.camera.rtps.writer[0].destAddresses = "vehicle"
*.camera.rtps.writer[0].appID = 0
*.camera.rtps.inetAdapter.localPort = 200
*.camera.rtps.inetAdapter.destPort = 100
*.camera.rtps.inetAdapter.localAddress = "camera"

*.vehicle.rtps.inetAdapter.interfaceTableModule = ""
*.vehicle.rtps.reader[0].destAddresses = "camera"
*.vehicle.rtps.reader[0].appID = 0
*.vehicle.rtps.inetAdapter.localPort = 100 
*.vehicle.rtps.inetAdapter.destPort = 200
*.vehicle.rtps.inetAdapter.localAddress = "vehicle"



# =================================================
# ================== IP Layer =====================
# =================================================

*.**.ipv4.arp.typename = "GlobalArp"
*.**.forwarding = true


# =================================================
# ================= MAC - Layer ===================
# =================================================

singleLink.**.wlan[0].typename = "WirelessInterface"
singleLink.**.wlan[0].mac.typename = "CsmaCaMacModified"
singleLink.**.wlan[0].queue.typename = "DropTailQueue"

singleLink.**.wlan[0].queue.packetCapacity = 100

# MAC retreansmissions
*.**.wlan[0].mac.useAck = false
*.**.wlan[*].mac.retryLimit = 0

# CSMA/CA configuration

singleLink.**.wlan[0].mac.sifsTime = 10us
singleLink.**.wlan[0].mac.slotTime = 9us

singleLink.**.wlan[0].mac.ta_enable = true
#*.**.wlan[0].mac.cwMin = 82
#*.**.wlan[0].mac.cwMax = 82

# ======================================================
# ================= Physical - Layer ===================
# ======================================================


singleLink.**.wlan[0].**.bitrate = 27Mbps

*.**.wlan[0].radio.typename = "UnitDiskRadio"
*.**.wlan[0].radio.transmitter.communicationRange = 1000m
*.**.wlan[0].radio.receiver.ignoreInterference = true
*.**.wlan[0].radio.transmitter.interferenceRange = 1000m
*.**.wlan[0].radio.displayInterferenceRange = false
*.**.wlan[0].radio.displayCommunicationRange = false

# ==================================================
# ================== Recording =====================
# ==================================================
*.**.wlan[*].**.scalar-recording = false
*.**.wlan[*].**.vector-recording = false
*.**.udp.**.scalar-recording = false
*.**.udp.**.vector-recording = false
*.**.ipv4.**.statistic-recording = false



# =======================================
# ============= Visualizer ==============
# =======================================
*.visualizer.mediumVisualizer.displaySignals = false

*.visualizer.physicalLinkVisualizer.displayLinks = true
*.visualizer.physicalLinkVisualizer.packetFilter = "UDPData*"

*.visualizer.*LinkVisualizer.lineShift = 0

*.visualizer.dataLinkVisualizer.packetFilter = ""
*.visualizer.dataLinkVisualizer.displayLinks = true

*.visualizer.networkRouteVisualizer.displayRoutes = true
*.visualizer.networkRouteVisualizer.lineShift = 0
*.visualizer.networkRouteVisualizer.packetFilter = "UDPData*"

*.visualizer.sceneVisualizer.descriptionFigure = "title"

# =======================================
# ============ Configurator =============
# =======================================

*.configurator.config = xmldoc("config.xml")
*.configurator.optimizeRoutes = false
